obj02
  PyMOL2.3          3D                             0

 24 26  0  0  0  0  0  0  0  0999 V2000
    7.2500   75.5110   56.3910 C   0  0  0  0  0  0  0  0  0  0  0  0
    7.3790   76.4010   57.3760 N   0  0  0  0  0  0  0  0  0  0  0  0
    5.2410   80.7240   57.6560 O   0  0  0  0  0  0  0  0  0  0  0  0
    6.9170   78.7530   58.5010 S   0  0  0  0  0  0  0  0  0  0  0  0
    6.5320   75.7620   55.2560 C   0  0  0  0  0  0  0  0  0  0  0  0
    6.0360   77.9070   56.1370 N   0  0  0  0  0  0  0  0  0  0  0  0
    0.3900   81.5460   57.6860 O   0  0  0  0  0  0  0  0  0  0  0  0
    5.9380   76.9900   55.1730 C   0  0  0  0  0  0  0  0  0  0  0  0
    2.9460   82.2740   57.2320 N   0  0  0  0  0  0  0  0  0  0  0  0
    6.7600   77.5670   57.2010 C   0  0  0  0  0  0  0  0  0  0  0  0
    1.8710   83.1180   57.0230 N   0  0  0  0  0  0  0  0  0  0  0  0
    6.5450   80.2630   57.7000 C   0  0  0  0  0  0  0  0  0  0  0  0
    7.3770   81.1560   57.0660 C   0  0  0  0  0  0  0  0  0  0  0  0
    6.5970   82.2340   56.6330 C   0  0  0  0  0  0  0  0  0  0  0  0
    5.2900   81.9570   57.0140 C   0  0  0  0  0  0  0  0  0  0  0  0
    4.0780   82.7250   56.8460 C   0  0  0  0  0  0  0  0  0  0  0  0
    0.6200   82.6830   57.2840 C   0  0  0  0  0  0  0  0  0  0  0  0
   -0.4820   83.6640   57.0520 C   0  0  0  0  0  0  0  0  0  0  0  0
   -1.7990   83.2860   57.2780 C   0  0  0  0  0  0  0  0  0  0  0  0
   -2.7860   84.2070   57.0560 C   0  0  0  0  0  0  0  0  0  0  0  0
   -2.5390   85.4850   56.6240 C   0  0  0  0  0  0  0  0  0  0  0  0
   -1.2260   85.8520   56.4020 C   0  0  0  0  0  0  0  0  0  0  0  0
   -0.2010   84.9520   56.6120 C   0  0  0  0  0  0  0  0  0  0  0  0
   -4.0750   83.8380   57.2770 F   0  0  0  0  0  0  0  0  0  0  0  0
  1  5  4  0  0  0  0
  1  2  4  0  0  0  0
  6  8  4  0  0  0  0
  5  8  4  0  0  0  0
  9 11  1  0  0  0  0
  2 10  4  0  0  0  0
  4 10  1  0  0  0  0
  6 10  4  0  0  0  0
  3 12  4  0  0  0  0
  4 12  1  0  0  0  0
 12 13  4  0  0  0  0
 13 14  4  0  0  0  0
 14 15  4  0  0  0  0
  3 15  4  0  0  0  0
 15 16  1  0  0  0  0
  9 16  2  0  0  0  0
  7 17  2  0  0  0  0
 11 17  1  0  0  0  0
 17 18  1  0  0  0  0
 18 19  4  0  0  0  0
 18 23  4  0  0  0  0
 19 20  4  0  0  0  0
 20 24  1  0  0  0  0
 20 21  4  0  0  0  0
 21 22  4  0  0  0  0
 22 23  4  0  0  0  0
M  END
$$$$
