obj01
  PyMOL2.3          3D                             0

 41 44  0  0  0  0  0  0  0  0999 V2000
  -18.6240   18.7860  -19.8520 C   0  0  0  0  0  0  0  0  0  0  0  0
  -25.4300   13.6610  -19.9080 C   0  0  0  0  0  0  0  0  0  0  0  0
  -17.6290   17.9460  -19.0640 C   0  0  0  0  0  0  0  0  0  0  0  0
  -16.4870   18.7740  -18.4970 C   0  0  0  0  0  0  0  0  0  0  0  0
  -22.8930   16.7750  -17.9840 C   0  0  0  0  0  0  0  0  0  0  0  0
  -15.6410   19.4550  -19.5570 C   0  0  0  0  0  0  0  0  0  0  0  0
  -20.7990   17.6260  -19.6020 C   0  0  0  0  0  0  0  0  0  0  0  0
  -20.9150   18.0640  -18.2790 C   0  0  0  0  0  0  0  0  0  0  0  0
  -21.9560   17.6430  -17.4880 C   0  0  0  0  0  0  0  0  0  0  0  0
  -22.7980   16.3110  -19.2830 C   0  0  0  0  0  0  0  0  0  0  0  0
  -24.7890   14.7900  -19.1700 C   0  0  0  0  0  0  0  0  0  0  0  0
  -19.7530   18.0170  -20.4040 N   0  0  0  0  0  0  0  0  0  0  0  0
  -23.7590   15.4060  -19.8030 N   0  0  0  0  0  0  0  0  0  0  0  0
  -19.6870   17.6230  -21.8140 C   0  0  0  0  0  0  0  0  0  0  0  0
  -21.0530   17.1510  -22.3070 C   0  0  0  0  0  0  0  0  0  0  0  0
  -25.0180   13.2820  -21.1810 C   0  0  0  0  0  0  0  0  0  0  0  0
  -25.6210   12.2260  -21.8360 C   0  0  0  0  0  0  0  0  0  0  0  0
  -26.6530   11.5320  -21.2220 C   0  0  0  0  0  0  0  0  0  0  0  0
  -26.7420   10.0460  -23.1140 C   0  0  0  0  0  0  0  0  0  0  0  0
  -27.6630    8.9740  -23.6340 C   0  0  0  0  0  0  0  0  0  0  0  0
  -20.9830   16.5020  -23.6860 C   0  0  0  0  0  0  0  0  0  0  0  0
  -27.9230    7.8890  -22.6110 C   0  0  0  0  0  0  0  0  0  0  0  0
  -29.0030    6.8930  -22.9980 C   0  0  0  0  0  0  0  0  0  0  0  0
  -29.5040    6.0930  -21.8100 C   0  0  0  0  0  0  0  0  0  0  0  0
  -28.8950    4.8890  -21.4670 C   0  0  0  0  0  0  0  0  0  0  0  0
  -29.3590    4.1930  -20.3800 C   0  0  0  0  0  0  0  0  0  0  0  0
  -30.3920    4.6360  -19.6010 C   0  0  0  0  0  0  0  0  0  0  0  0
  -30.9950    5.8340  -19.9370 C   0  0  0  0  0  0  0  0  0  0  0  0
  -30.5680    6.5720  -21.0290 C   0  0  0  0  0  0  0  0  0  0  0  0
  -27.0730   11.8970  -19.9520 C   0  0  0  0  0  0  0  0  0  0  0  0
  -26.4620   12.9520  -19.3050 C   0  0  0  0  0  0  0  0  0  0  0  0
  -21.7480   16.7330  -20.1010 C   0  0  0  0  0  0  0  0  0  0  0  0
  -31.2590    7.8760  -21.3510 C   0  0  0  0  0  0  0  0  0  0  0  0
  -28.7620    3.0150  -20.0580 F   0  0  0  0  0  0  0  0  0  0  0  0
  -20.9670   17.1990  -24.6720 O   0  0  0  0  0  0  0  0  0  0  0  0
  -20.9370   15.2990  -23.7810 O   0  5  0  0  0  0  0  0  0  0  0  0
  -15.5410   20.6970  -19.5250 O   0  5  0  0  0  0  0  0  0  0  0  0
  -15.0880   18.7390  -20.4150 O   0  0  0  0  0  0  0  0  0  0  0  0
  -25.1730   15.0800  -18.0430 O   0  0  0  0  0  0  0  0  0  0  0  0
  -27.2660   10.4850  -21.8560 O   0  0  0  0  0  0  0  0  0  0  0  0
  -21.6820   16.2640  -21.3860 O   0  0  0  0  0  0  0  0  0  0  0  0
  1  3  1  0  0  0  0
  1 12  1  0  0  0  0
  2 11  1  0  0  0  0
  2 16  4  0  0  0  0
  2 31  4  0  0  0  0
  3  4  1  0  0  0  0
  4  6  1  0  0  0  0
  5  9  4  0  0  0  0
  5 10  4  0  0  0  0
  6 37  4  0  0  0  0
  6 38  4  0  0  0  0
  7  8  4  0  0  0  0
  7 12  1  0  0  0  0
  7 32  4  0  0  0  0
  8  9  4  0  0  0  0
 10 13  1  0  0  0  0
 10 32  4  0  0  0  0
 11 13  1  0  0  0  0
 11 39  2  0  0  0  0
 12 14  1  0  0  0  0
 14 15  1  0  0  0  0
 15 21  1  0  0  0  0
 15 41  1  0  0  0  0
 16 17  4  0  0  0  0
 17 18  4  0  0  0  0
 18 30  4  0  0  0  0
 18 40  1  0  0  0  0
 19 20  1  0  0  0  0
 19 40  1  0  0  0  0
 20 22  1  0  0  0  0
 21 35  4  0  0  0  0
 21 36  4  0  0  0  0
 22 23  1  0  0  0  0
 23 24  1  0  0  0  0
 24 25  4  0  0  0  0
 24 29  4  0  0  0  0
 25 26  4  0  0  0  0
 26 27  4  0  0  0  0
 26 34  1  0  0  0  0
 27 28  4  0  0  0  0
 28 29  4  0  0  0  0
 29 33  1  0  0  0  0
 30 31  4  0  0  0  0
 32 41  1  0  0  0  0
M  END
$$$$
